*Heading
** Job name: BEAM-bending Model name: Model-1
** Generated by: Abaqus/CAE Learning Edition 2022
*Preprint, echo=NO, model=NO, history=NO, contact=NO
**
** PARTS
**
*Part, name=BEAM
*Node
      1,           0.,           0.,           0.
      2,          20.,           0.,           0.
      3,          40.,           0.,           0.
      4,          60.,           0.,           0.
      5,          80.,           0.,           0.
      6,         100.,           0.,           0.
      7,         120.,           0.,           0.
      8,         140.,           0.,           0.
      9,         160.,           0.,           0.
     10,         180.,           0.,           0.
     11,         200.,           0.,           0.
     12,         220.,           0.,           0.
     13,         240.,           0.,           0.
     14,         260.,           0.,           0.
     15,         280.,           0.,           0.
     16,         300.,           0.,           0.
     17,         320.,           0.,           0.
     18,         340.,           0.,           0.
     19,         360.,           0.,           0.
     20,         380.,           0.,           0.
** ... 31 like lines cut
*Element, type=B31
 1,  1,  2
 2,  2,  3
 3,  3,  4
 4,  4,  5
 5,  5,  6
 6,  6,  7
 7,  7,  8
 8,  8,  9
 9,  9, 10
10, 10, 11
11, 11, 12
12, 12, 13
13, 13, 14
14, 14, 15
15, 15, 16
16, 16, 17
17, 17, 18
18, 18, 19
19, 19, 20
20, 20, 21
** ... 30 like lines cut
*Nset, nset=Set-1, generate
  1,  51,   1
*Elset, elset=Set-1, generate
  1,  50,   1
*Nset, nset=Set-2, generate
  1,  51,   1
*Elset, elset=Set-2, generate
  1,  50,   1
** Section: BEAM  Profile: IBEAM
*Beam Section, elset=Set-1, material=STEEL, temperature=GRADIENTS, section=I
40., 80., 46., 46., 5.2, 5.2, 3.8
0.,0.,-1.
*End Part
**  
**
** ASSEMBLY
**
*Assembly, name=Assembly
**  
*Instance, name=BEAM-1, part=BEAM
*End Instance
**  
*Nset, nset=BC, instance=BEAM-1
 1,
*Nset, nset=Set-1, instance=BEAM-1
 51,
*End Assembly
** 
** MATERIALS
** 
*Material, name=STEEL
*Elastic
206000., 0.1
** ----------------------------------------------------------------
** 
** STEP: Step-1
** 
*Step, name=Step-1, nlgeom=NO
*Static
1., 1., 1e-05, 1.
** 
** BOUNDARY CONDITIONS
** 
** Name: BC-1 Type: Displacement/Rotation
*Boundary
BC, 1, 1
BC, 2, 2
BC, 3, 3
BC, 4, 4
BC, 5, 5
BC, 6, 6
** 
** LOADS
** 
** Name: Load-1   Type: Concentrated force
*Cload
Set-1, 2, -1000.
** 
** OUTPUT REQUESTS
** 
*Restart, write, frequency=0
** 
** FIELD OUTPUT: F-Output-1
** 
*Output, field
*Node Output
CF, RF, U
*Element Output, directions=YES
LE, PE, PEEQ, PEMAG, S, SF
*Contact Output
CDISP, CSTRESS
** 
** HISTORY OUTPUT: H-Output-1
** 
*Output, history, variable=PRESELECT
*End Step
